grid_TF_Wind/data/TYTFS2024_studyfiles/TYTFS2024_WP2024_V35.raw
@!IC,SBASE,REV,XFRRAT,NXFRAT,BASFRQ
0,  100.00, 35,     1,     1, 50.00     / PSS(R)E-35.6    TUE, SEP 30 2025  14:45
/ CASE: 2024/2025;  WINTER 31/12/2024; FORECAST STATEMENT 20
/ NEXT PLANET;  11:16:41  TUESDAY, SEPTEMBER 30, 2025 RATE 5
GENERAL, THRSHZ=0.0001, PQBRAK=0.7, BLOWUP=5.0, MaxIsolLvls=4, CAMaxReptSln=20, ChkDupCntLbl=0
GAUSS, ITMX=100, ACCP=1.6, ACCQ=1.6, ACCM=1.0, TOL=0.0001
NEWTON, ITMXN=20, ACCN=1.0, TOLN=0.1, VCTOLQ=0.1, VCTOLV=0.00001, DVLIM=0.99, NDVFCT=0.99
ADJUST, ADJTHR=0.005, ACCTAP=1.0, TAPLIM=0.05, SWVBND=100.0, MXTPSS=99, MXSWIM=10
TYSL, ITMXTY=20, ACCTY=1.0, TOLTY=0.00001
SOLVER, FDNS, ACTAPS=0, AREAIN=0, PHSHFT=0, DCTAPS=0, SWSHNT=0, FLATST=0, VARLIM=0, NONDIV=0
RATING, 1, "RATE1 ", "RATING SET 1                    "
RATING, 2, "RATE2 ", "RATING SET 2                    "
RATING, 3, "RATE3 ", "RATING SET 3                    "
RATING, 4, "RATE4 ", "RATING SET 4                    "
RATING, 5, "RATE5 ", "RATING SET 5                    "
RATING, 6, "RATE6 ", "RATING SET 6                    "
RATING, 7, "RATE7 ", "RATING SET 7                    "
RATING, 8, "RATE8 ", "RATING SET 8                    "
RATING, 9, "RATE9 ", "RATING SET 9                    "
RATING,10, "RATE10", "RATING SET 10                   "
RATING,11, "RATE11", "RATING SET 11                   "
RATING,12, "RATE12", "RATING SET 12                   "
0 / END OF SYSTEM-WIDE DATA, BEGIN BUS DATA
@!   I,'NAME        ', BASKV, IDE,AREA,ZONE,OWNER, VM,        VA,    NVHI,   NVLO,   EVHI,   EVLO
    10,'F_M         ',  38.0000,1,  11,  11,   1,1.06540, -10.9636,1.10000,0.90000,1.10000,0.90000
    11,'FMN LOOP    ',  38.0000,1,  11,  11,   1,1.07351,  -7.9006,1.10000,0.90000,1.10000,0.90000
    12,'BEDFORD ROW ',  38.0000,1,  11,  11,   1,1.06773, -13.0201,1.10000,0.90000,1.10000,0.90000
    13,'M_R         ',  38.0000,1,  11,  11,   1,1.08680, -13.1417,1.10000,0.90000,1.10000,0.90000
    14,'F_I         ',  38.0000,1,  11,  11,   1,1.09253, -11.0632,1.10000,0.90000,1.10000,0.90000
    15,'I_M         ',  38.0000,1,  11,  11,   1,1.09569, -11.0791,1.10000,0.90000,1.10000,0.90000
  1021,'ARDNACRUSHA ', 110.0000,1,   4,   4,   1,1.07114,   0.3855,1.10000,0.90000,1.10000,0.90000
  1041,'AGHADA      ', 110.0000,1,  10,  10,   2,1.06492,   9.1349,1.10000,0.90000,1.10000,0.90000
  1042,'AGHADA      ', 220.0000,1,  10,  10,   2,1.06000,  13.7731,1.10000,0.90000,1.10000,0.90000
  1052,'AGHADA_B    ', 220.0000,1,  10,  10,   2,1.06000,  13.7731,1.10000,0.90000,1.10000,0.90000
  1061,'ARIGNA      ', 110.0000,1,   1,   1,   3,1.11127, -13.1098,1.10000,0.90000,1.10000,0.90000
  1062,'AGH_AT14    ', 220.0000,1,  10,  10,   9,1.06000,  13.7731,1.10000,0.90000,1.10000,0.90000
  1071,'AGANNYGAL   ', 110.0000,1,   4,   4,   3,1.08611,  -1.0840,1.10000,0.90000,1.10000,0.90000
  1072,'AGHT2102    ', 220.0000,1,  10,  10,   2,1.05995,  13.7505,1.10000,0.90000,1.10000,0.90000
  1081,'AHANE       ', 110.0000,1,   8,   8,   2,1.06966,   1.0203,1.10000,0.90000,1.10000,0.90000
  1091,'ADAMSTOWN   ', 110.0000,1,  11,  11,   1,1.05450,  -9.2247,1.10000,0.90000,1.10000,0.90000
  1101,'ANNER       ', 110.0000,1,   8,   8,   6,1.06170,  -2.0650,1.10000,0.90000,1.10000,0.90000
  1121,'ARKLOW      ', 110.0000,1,   9,   9,   3,1.06824,  -4.3123,1.10000,0.90000,1.10000,0.90000
  1122,'ARKLOW      ', 220.0000,1,   9,   9,   3,1.05964,  -2.2377,1.10000,0.90000,1.10000,0.90000
  1131,'ATHEA       ', 110.0000,1,   5,   5,  17,1.09236,   4.7469,1.10000,0.90000,1.10000,0.90000
  1141,'ATHLONE     ', 110.0000,1,   3,   3,   3,1.11155,  -5.6895,1.10000,0.90000,1.10000,0.90000
  1161,'AUGHINISH   ', 110.0000,1,   5,   5,   2,1.05000,   5.2788,1.10000,0.90000,1.10000,0.90000
  1181,'ARVA        ', 110.0000,1,   7,   7,   3,1.07550, -14.0830,1.10000,0.90000,1.10000,0.90000
  1201,'ARTANE      ', 110.0000,1,  11,  11,   1,1.05770,  -5.4065,1.10000,0.90000,1.10000,0.90000
  1211,'BALLYVOUSKIL', 110.0000,1,   5,   5,   3,1.05000,   6.7548,1.10000,0.90000,1.10000,0.90000
  1212,'BALLYVOUSKIL', 220.0000,1,   5,   5,   3,1.06210,   6.7535,1.10000,0.90000,1.10000,0.90000
  1221,'ATHY        ', 110.0000,1,  11,  11,   3,1.04903,  -5.5909,1.10000,0.90000,1.10000,0.90000
  1231,'BALLYWATER  ', 110.0000,1,   9,   9,  17,1.07199,  -2.9470,1.10000,0.90000,1.10000,0.90000
  1251,'BOOLTIAGH   ', 110.0000,1,   4,   4,  17,1.08593,   0.3591,1.10000,0.90000,1.10000,0.90000
  1271,'BALTRASNA   ', 110.0000,1,   7,   7,   2,1.04784,  -9.5777,1.10000,0.90000,1.10000,0.90000
  1281,'BALLYLICKEY ', 110.0000,1,   6,   6,   3,1.06049,   3.9018,1.10000,0.90000,1.10000,0.90000
  1301,'BALLYBEG    ', 110.0000,1,   9,   9,   2,1.06382,  -5.2456,1.10000,0.90000,1.10000,0.90000
  1311,'CORDAL      ', 110.0000,1,   5,   5,  17,1.05189,   6.1889,1.10000,0.90000,1.10000,0.90000
  1321,'BLAKE       ', 110.0000,1,  11,  11,   2,1.04744,  -7.8502,1.10000,0.90000,1.10000,0.90000
  1331,'BLUNDELSTOWN', 110.0000,1,  11,  11,  23,1.06126,  -8.3992,1.10000,0.90000,1.10000,0.90000
  1341,'BINBANE     ', 110.0000,1,   1,   1,   3,1.08410, -19.8123,1.10000,0.90000,1.10000,0.90000
  1351,'BARODA      ', 110.0000,1,  11,  11,   6,1.05099,  -8.0025,1.10000,0.90000,1.10000,0.90000
  1361,'BALLYDINE   ', 110.0000,1,   8,   8,   3,1.05680,  -1.4674,1.10000,0.90000,1.10000,0.90000
  1371,'BARNAGEERAGH', 110.0000,1,  11,  11,   7,1.05027,  -7.9021,1.10000,0.90000,1.10000,0.90000
  1381,'BARNAHELY   ', 110.0000,1,  10,  10,   2,1.06307,   8.1194,1.10000,0.90000,1.10000,0.90000
  1401,'BELLACORICK ', 110.0000,1,   2,   2,   3,1.17834, -15.4333,1.10000,0.90000,1.10000,0.90000
  1411,'AIRTON      ', 110.0000,1,  11,  11,   7,1.06648,  -7.7209,1.10000,0.90000,1.10000,0.90000
  1421,'BLACKROCK   ', 110.0000,1,  11,  11,   1,1.06377,  -9.1648,1.10000,0.90000,1.10000,0.90000
  1431,'BALLYRAGGET ', 110.0000,1,   9,   9,   3,1.05091,  -6.0675,1.10000,0.90000,1.10000,0.90000
  1441,'BANDON      ', 110.0000,1,   6,   6,   2,1.06379,   5.0242,1.10000,0.90000,1.10000,0.90000
  1451,'CLOGHRAN    ', 110.0000,1,  11,  11,   7,1.05031,  -7.8945,1.10000,0.90000,1.10000,0.90000
  1461,'BARRYMORE   ', 110.0000,1,   8,   8,   2,1.05724,   3.6900,1.10000,0.90000,1.10000,0.90000
  1471,'BELCAMP     ', 110.0000,1,  11,  11,   7,1.04889,  -6.2051,1.10000,0.90000,1.10000,0.90000
  1472,'BELCAMP     ', 220.0000,1,  11,  11,   7,1.05954,  -2.2955,1.10000,0.90000,1.10000,0.90000
  1481,'BUTLERSTOWN ', 110.0000,1,  12,  12,   3,1.05307,  -0.3921,1.10000,0.90000,1.10000,0.90000
  1491,'DEENES      ', 110.0000,1,   7,   7,   1,1.04720, -10.4496,1.10000,0.90000,1.10000,0.90000
  1501,'BRINNY      ', 110.0000,1,   6,   6,   6,1.06368,   5.0161,1.10000,0.90000,1.10000,0.90000
  1511,'CLOGHBOOLA  ', 110.0000,1,   5,   5,  17,1.09435,   4.7160,1.10000,0.90000,1.10000,0.90000
  1521,'BOGTOWN     ', 110.0000,1,  11,  11,  17,1.06278,  -6.3914,1.10000,0.90000,1.10000,0.90000
  1522,'CLONEE      ', 220.0000,1,  11,  11,   7,1.06158,  -2.5325,1.10000,0.90000,1.10000,0.90000
  1531,'BALLYADAM   ', 110.0000,1,   9,   9,   3,1.05528,   7.2996,1.10000,0.90000,1.10000,0.90000
  1541,'BANOGE      ', 110.0000,1,   9,   9,   3,1.06888,  -3.7336,1.10000,0.90000,1.10000,0.90000
  1551,'BOGGERAGH   ', 110.0000,1,   5,   5,  17,1.06540,   5.8063,1.10000,0.90000,1.10000,0.90000
  1561,'COOLDERRIG  ', 110.0000,1,  11,  11,   7,1.05441,  -9.3056,1.10000,0.90000,1.10000,0.90000
  1571,'ARDNAGAPPARY', 110.0000,1,   1,   1,   3,1.07477, -21.5630,1.10000,0.90000,1.10000,0.90000
  1581,'CABRA       ', 110.0000,1,  11,  11,   1,1.05710,  -5.4510,1.10000,0.90000,1.10000,0.90000
  1601,'CLASHAVOON  ', 110.0000,1,   5,   5,   3,1.06459,   5.8151,1.10000,0.90000,1.10000,0.90000
  1602,'CLASHAVOON  ', 220.0000,1,   5,   5,   3,1.06091,   7.3633,1.10000,0.90000,1.10000,0.90000
  1611,'CLONKEEN    ', 110.0000,1,   5,   5,   3,1.06735,   3.1422,1.10000,0.90000,1.10000,0.90000
  1621,'COOLROE     ', 110.0000,1,  10,  10,   2,1.05936,   6.0046,1.10000,0.90000,1.10000,0.90000
  1631,'CORDERRY    ', 110.0000,1,   1,   1,   3,1.11803, -13.6194,1.10000,0.90000,1.10000,0.90000
  1641,'CASHLA      ', 110.0000,1,   2,   2,   2,1.12804,  -4.5863,1.10000,0.90000,1.10000,0.90000
  1642,'CASHLA      ', 220.0000,1,   2,   2,   2,1.09378,  -1.3360,1.10000,0.90000,1.10000,0.90000
  1651,'CLAHANE     ', 110.0000,1,   5,   5,  17,1.09572,   1.3133,1.10000,0.90000,1.10000,0.90000
  1661,'CASTLEBAR   ', 110.0000,1,   2,   2,   3,1.17227, -13.5160,1.10000,0.90000,1.10000,0.90000
  1671,'KILCUMBER   ', 110.0000,1,  11,  11,  17,1.06000,  -5.0502,1.10000,0.90000,1.10000,0.90000
  1681,'CARRIGADROHI', 110.0000,1,   6,   6,  21,1.06332,   5.8036,1.10000,0.90000,1.10000,0.90000
  1691,'CENTRAL PARK', 110.0000,1,  11,  11,   1,1.06117,  -5.9850,1.10000,0.90000,1.10000,0.90000
  1701,'CATH_FALL   ', 110.0000,1,   1,   1,   3,1.08705, -17.3035,1.10000,0.90000,1.10000,0.90000
  1711,'CROMCASTLE  ', 110.0000,1,  11,  11,   1,1.05482,  -6.8209,1.10000,0.90000,1.10000,0.90000
  1721,'CAHIR       ', 110.0000,1,   8,   8,   3,1.07176,  -1.6735,1.10000,0.90000,1.10000,0.90000
  1731,'CROMCASTLE  ', 110.0000,1,  11,  11,   1,1.05482,  -6.8209,1.10000,0.90000,1.10000,0.90000
  1741,'CARRICKMINES', 110.0000,1,  11,  11,   2,1.06114,  -5.9397,1.10000,0.90000,1.10000,0.90000
  1742,'CARRICKMINES', 220.0000,1,  11,  11,   2,1.06031,  -3.9125,1.10000,0.90000,1.10000,0.90000
  1761,'CLIFF       ', 110.0000,1,   1,   1,  13,1.08688, -17.1056,1.10000,0.90000,1.10000,0.90000
  1781,'CASTLEFARM  ', 110.0000,1,   5,   5,   6,1.04949,   5.2598,1.10000,0.90000,1.10000,0.90000
  1801,'COOKSTOWN   ', 110.0000,1,  11,  11,   2,1.05815,  -5.9261,1.10000,0.90000,1.10000,0.90000
  1810,'DARNDALE    ', 110.0000,1,  11,  11,   7,1.04855,  -6.2685,1.10000,0.90000,1.10000,0.90000
  1811,'CLUTTERLAND ', 110.0000,1,  11,  11,   7,1.05684,  -7.0188,1.10000,0.90000,1.10000,0.90000
  1821,'CLOON       ', 110.0000,1,   2,   2,   2,1.13359,  -8.0365,1.10000,0.90000,1.10000,0.90000
  1831,'SCREEB      ', 110.0000,1,   2,   2,   3,1.13152,  -7.3703,1.10000,0.90000,1.10000,0.90000
  1841,'CRANE       ', 110.0000,1,   9,   9,   3,1.07027,  -2.9155,1.10000,0.90000,1.10000,0.90000
  1851,'CHERRYWOOD  ', 110.0000,1,  11,  11,   6,1.06037,  -6.0322,1.10000,0.90000,1.10000,0.90000
  1861,'CARRICK ON S', 110.0000,1,   3,   3,   3,1.10200, -12.1959,1.10000,0.90000,1.10000,0.90000
  1871,'COLLEGE PARK', 110.0000,1,  11,  11,   1,1.05104,  -7.8259,1.10000,0.90000,1.10000,0.90000
  1881,'CHARLEVILLE ', 110.0000,1,   5,   5,   2,1.05317,   1.4765,1.10000,0.90000,1.10000,0.90000
  1901,'CARLOW      ', 110.0000,1,   9,   9,   3,1.05808,  -4.4507,1.10000,0.90000,1.10000,0.90000
  1921,'COW CROSS   ', 110.0000,1,  10,  10,   2,1.06132,   7.9236,1.10000,0.90000,1.10000,0.90000
  1931,'CUNGHILL    ', 110.0000,1,   2,   2,   3,1.14543, -15.2674,1.10000,0.90000,1.10000,0.90000
  1941,'CUSHALING   ', 110.0000,1,  11,  11,  12,1.06000,  -5.0501,1.10000,0.90000,1.10000,0.90000
  1951,'CARROWBEG   ', 110.0000,1,   2,   2,   3,1.16821, -14.0966,1.10000,0.90000,1.10000,0.90000
  1961,'CASTLEVIEW  ', 110.0000,1,  10,  10,   2,1.05710,   7.0125,1.10000,0.90000,1.10000,0.90000
  1971,'COOMAGEARLAH', 110.0000,1,   5,   5,  17,1.05186,   6.6755,1.10000,0.90000,1.10000,0.90000
  1981,'CORRACLASSY ', 110.0000,1,   1,   1,   3,1.06862, -16.2049,1.10000,0.90000,1.10000,0.90000
  1991,'CASTLEDOCKRE', 110.0000,1,   9,   9,  17,1.07110,  -2.1806,1.10000,0.90000,1.10000,0.90000
  2001,'CULLENAGH   ', 110.0000,1,  12,  12,   3,1.05717,   0.4529,1.10000,0.90000,1.10000,0.90000
  2002,'CULLENAGH   ', 220.0000,1,  12,  12,   3,1.05639,   4.5804,1.10000,0.90000,1.10000,0.90000
  2021,'CITY WEST   ', 110.0000,1,  11,  11,   2,1.03844, -10.3417,1.10000,0.90000,1.10000,0.90000
  2041,'CORDUFF     ', 110.0000,1,  11,  11,   1,1.05112,  -7.7731,1.10000,0.90000,1.10000,0.90000
  2042,'CORDUFF     ', 220.0000,1,  11,  11,   1,1.05911,  -2.1662,1.10000,0.90000,1.10000,0.90000
  2052,'CORDUFFB    ', 220.0000,1,  11,  11,   1,1.05911,  -2.1662,1.10000,0.90000,1.10000,0.90000
  2072,'CRUISERATH  ', 220.0000,1,  11,  11,   7,1.05873,  -2.1281,1.10000,0.90000,1.10000,0.90000
  2090,'KNOCKRANNY A', 110.0000,1,   2,   2,  25,1.13548,  -5.6024,1.10000,0.90000,1.10000,0.90000
  2091,'KNOCKRANNY  ', 110.0000,1,   2,   2,   3,1.13643,  -6.3821,1.10000,0.90000,1.10000,0.90000
  2101,'DUNDALK     ', 110.0000,1,   7,   7,   3,1.06593, -11.1886,1.10000,0.90000,1.10000,0.90000
  2111,'UGGOOL      ', 110.0000,1,   2,   2,  17,1.13557,  -5.6032,1.10000,0.90000,1.10000,0.90000
  2121,'DRUMLINE    ', 110.0000,1,   4,   4,   2,1.07874,  -1.1620,1.10000,0.90000,1.10000,0.90000
  2131,'DROMADA     ', 110.0000,1,   5,   5,  17,1.09255,   4.7448,1.10000,0.90000,1.10000,0.90000
  2141,'DUNGARVAN   ', 110.0000,1,  12,  12,   3,1.04680,   1.5508,1.10000,0.90000,1.10000,0.90000
  2161,'DOON        ', 110.0000,1,   8,   8,   3,1.06255,  -2.0268,1.10000,0.90000,1.10000,0.90000
  2171,'KNOCKALOUGH ', 110.0000,1,   2,   2,  18,1.13734,  -6.3904,1.10000,0.90000,1.10000,0.90000
  2181,'DRYBRIDGE   ', 110.0000,1,   7,   7,   2,1.04672, -11.2233,1.10000,0.90000,1.10000,0.90000
  2202,'DUNSTOWN    ', 220.0000,1,  11,  11,   1,1.05762,  -2.5291,1.10000,0.90000,1.10000,0.90000
  2204,'DUNSTOWN    ', 380.0000,1,  11,  11,   1,1.04930,  -0.4115,1.10000,0.90000,1.10000,0.90000
  2221,'DUNMANWAY   ', 110.0000,1,   6,   6,   3,1.06426,   4.5678,1.10000,0.90000,1.10000,0.90000
  2225,'DUNMANWAY   ', 110.0000,1,   6,   6,   3,1.06426,   4.5678,1.10000,0.90000,1.10000,0.90000
  2231,'DERRYBRIEN  ', 110.0000,1,   4,   4,  17,1.08615,  -1.0850,1.10000,0.90000,1.10000,0.90000
  2241,'DALLOW      ', 110.0000,1,   8,   8,   3,1.07201,  -1.9828,1.10000,0.90000,1.10000,0.90000
  2251,'DARDISTOWN  ', 110.0000,1,  11,  11,   6,1.05546,  -6.7837,1.10000,0.90000,1.10000,0.90000
  2261,'DERRYIRON   ', 110.0000,1,  11,  11,  11,1.06327,  -8.4430,1.10000,0.90000,1.10000,0.90000
  2281,'DALTON_A1   ', 110.0000,1,   2,   2,   3,1.16061, -11.6731,1.10000,0.90000,1.10000,0.90000
  2301,'DUNFIRTH    ', 110.0000,1,  11,  11,   2,1.05968,  -8.5224,1.10000,0.90000,1.10000,0.90000
  2321,'DRUMKEEN    ', 110.0000,1,   1,   1,   3,1.08457, -21.9842,1.10000,0.90000,1.10000,0.90000
  2361,'ENNIS       ', 110.0000,1,   4,   4,   2,1.08550,  -1.6791,1.10000,0.90000,1.10000,0.90000
  2391,'KILL HILL   ', 110.0000,1,   8,   8,  17,1.06450,  -2.2826,1.10000,0.90000,1.10000,0.90000
  2401,'MOUNT LUCAS ', 110.0000,1,  11,  11,  17,1.06199,  -6.3710,1.10000,0.90000,1.10000,0.90000
  2421,'CORKAGH     ', 110.0000,1,  11,  11,   7,1.05672,  -7.0426,1.10000,0.90000,1.10000,0.90000
  2481,'FASS EAST   ', 110.0000,1,  11,  11,   2,1.05496,  -6.0957,1.10000,0.90000,1.10000,0.90000
  2491,'FASS WEST   ', 110.0000,1,  11,  11,   2,1.05516,  -6.0763,1.10000,0.90000,1.10000,0.90000
  2521,'FLAGFORD    ', 110.0000,1,   2,   2,   3,1.10340, -11.9490,1.10000,0.90000,1.10000,0.90000
  2522,'FLAGFORD    ', 220.0000,1,   2,   2,   3,1.08799,  -8.5311,1.10000,0.90000,1.10000,0.90000
  2541,'FRN ST A    ', 110.0000,1,  11,  11,   1,1.06530,  -9.1681,1.10000,0.90000,1.10000,0.90000
  2551,'FRN ST B    ', 110.0000,1,  11,  11,   1,1.06721,  -7.6533,1.10000,0.90000,1.10000,0.90000
  2561,'FIN_URBAN   ', 110.0000,1,  11,  11,   1,1.05885,  -5.2280,1.10000,0.90000,1.10000,0.90000
  2562,'FINGLAS     ', 220.0000,1,  11,  11,   1,1.06000,  -2.2057,1.10000,0.90000,1.10000,0.90000
  2563,'FINGLAS220B ', 220.0000,1,  11,  11,   1,1.06000,  -2.2057,1.10000,0.90000,1.10000,0.90000
  2571,'FIN_RURAL   ', 110.0000,1,  11,  11,   1,1.05599,  -6.5815,1.10000,0.90000,1.10000,0.90000
  2581,'FINGLAS B5  ', 110.0000,1,  11,  11,   1,1.05129,  -7.8296,1.10000,0.90000,1.10000,0.90000
  2591,'FORTUNESTOWN', 110.0000,1,  11,  11,   1,1.03751, -10.3660,1.10000,0.90000,1.10000,0.90000
  2671,'GARVAGH     ', 110.0000,1,   1,   1,   3,1.12199, -13.6599,1.10000,0.90000,1.10000,0.90000
  2681,'GILRA       ', 110.0000,1,   3,   3,   6,1.10573, -12.2398,1.10000,0.90000,1.10000,0.90000
  2691,'GARBALLAGH  ', 110.0000,1,   7,   7,  23,1.04677, -10.9831,1.10000,0.90000,1.10000,0.90000
  2701,'GLASMORE    ', 110.0000,1,  11,  11,   2,1.03594,  -7.8781,1.10000,0.90000,1.10000,0.90000
  2721,'GRIFFINRATH ', 110.0000,1,  11,  11,   2,1.05796,  -7.5271,1.10000,0.90000,1.10000,0.90000
  2731,'GLANLEE     ', 110.0000,1,   5,   5,  17,1.05187,   6.6748,1.10000,0.90000,1.10000,0.90000
  2741,'GREAT ISLAND', 110.0000,1,   9,   9,   3,1.05717,  -0.2960,1.10000,0.90000,1.10000,0.90000
  2742,'GREAT ISLAND', 220.0000,1,   9,   9,   3,1.06000,   4.2009,1.10000,0.90000,1.10000,0.90000
  2761,'GRANGE      ', 110.0000,1,  11,  11,   1,1.05413,  -6.8676,1.10000,0.90000,1.10000,0.90000
  2771,'GARROW      ', 110.0000,1,   5,   5,  17,1.05049,   6.7320,1.10000,0.90000,1.10000,0.90000
  2781,'GALWAY      ', 110.0000,1,   2,   2,   1,1.12741,  -5.5357,1.10000,0.90000,1.10000,0.90000
  2791,'GALLANSTOWN ', 110.0000,1,  11,  11,  23,1.04959,  -8.7060,1.10000,0.90000,1.10000,0.90000
  2801,'GOLAGH      ', 110.0000,1,   1,   1,  17,1.09459, -19.6730,1.10000,0.90000,1.10000,0.90000
  2821,'GORTAWEE    ', 110.0000,1,   1,   1,   3,1.07005, -16.0960,1.10000,0.90000,1.10000,0.90000
  2841,'GORMAN      ', 110.0000,1,   7,   7,   3,1.04720, -11.0497,1.10000,0.90000,1.10000,0.90000
  2842,'GORMAN      ', 220.0000,1,   7,   7,   3,1.05174,  -7.1713,1.10000,0.90000,1.10000,0.90000
  2852,'GLANAGOW    ', 220.0000,1,  10,  10,   9,1.06000,  13.8247,1.10000,0.90000,1.10000,0.90000
  2861,'GRANGE CASTL', 110.0000,1,  11,  11,   1,1.05446,  -9.2869,1.10000,0.90000,1.10000,0.90000
  2870,'CLOGHER     ', 110.0000,1,   1,   1,   3,1.09464, -19.6547,1.10000,0.90000,1.10000,0.90000
  2871,'CLOGHER     ', 110.0000,1,   1,   1,   3,1.09464, -19.6547,1.10000,0.90000,1.10000,0.90000
  2881,'GLENLARA    ', 110.0000,1,   5,   5,   3,1.04434,   0.8236,1.10000,0.90000,1.10000,0.90000
  2941,'HAROLDS CROS', 110.0000,1,  11,  11,   1,1.06541,  -9.1461,1.10000,0.90000,1.10000,0.90000
  2951,'HEUSTON SQUA', 110.0000,1,  11,  11,   1,1.06733,  -7.6353,1.10000,0.90000,1.10000,0.90000
  2962,'HUNTSTOWN   ', 220.0000,1,  11,  11,   9,1.06013,  -2.0963,1.10000,0.90000,1.10000,0.90000
  2972,'HUNTSTOWN 2 ', 220.0000,1,  11,  11,   9,1.05893,  -1.8759,1.10000,0.90000,1.10000,0.90000
  3061,'INISCARRA   ', 110.0000,1,   6,   6,  13,1.06009,   6.0447,1.10000,0.90000,1.10000,0.90000
  3081,'INCH_CITY   ', 110.0000,1,  11,  11,   1,1.06762,  -7.5786,1.10000,0.90000,1.10000,0.90000
  3082,'INCHICORE   ', 220.0000,1,  11,  11,   1,1.06313,  -4.9124,1.10000,0.90000,1.10000,0.90000
  3091,'INCH_COUNTRY', 110.0000,1,  11,  11,   1,1.05585,  -9.0830,1.10000,0.90000,1.10000,0.90000
  3101,'IKERRIN     ', 110.0000,1,   8,   8,   3,1.05966,  -2.8530,1.10000,0.90000,1.10000,0.90000
  3122,'IRISHTOWN   ', 220.0000,1,  11,  11,   1,1.06000,  -3.5516,1.10000,0.90000,1.10000,0.90000
  3190,'KNOCKANURE  ', 110.0000,1,   5,   5,   3,1.09531,   1.8389,1.10000,0.90000,1.10000,0.90000
  3191,'KNOCKANURE  ', 110.0000,1,   5,   5,   3,1.09092,   4.7621,1.10000,0.90000,1.10000,0.90000
  3192,'KNOCKANURE  ', 220.0000,1,   5,   5,   3,1.08326,   4.7687,1.10000,0.90000,1.10000,0.90000
  3201,'KNOCKRAHA   ', 110.0000,1,  10,  10,   2,1.05927,   6.9348,1.10000,0.90000,1.10000,0.90000
  3202,'KNOCKRAHA   ', 220.0000,1,  10,  10,   2,1.05816,  10.7647,1.10000,0.90000,1.10000,0.90000
  3203,'KNOCKRAHA   ', 220.0000,1,  10,  10,   2,1.05816,  10.7647,1.10000,0.90000,1.10000,0.90000
  3209,'KNOCKRAHA   ', 110.0000,1,  10,  10,   2,1.05927,   6.9348,1.10000,0.90000,1.10000,0.90000
  3221,'KILBARRY    ', 110.0000,1,  10,  10,   3,1.05751,   6.0905,1.10000,0.90000,1.10000,0.90000
  3241,'KILTEEL     ', 110.0000,1,  11,  11,   2,1.05894,  -8.5884,1.10000,0.90000,1.10000,0.90000
  3251,'REAMORE     ', 110.0000,1,   5,   5,  19,1.09219,   0.9686,1.10000,0.90000,1.10000,0.90000
  3261,'KILKENNY    ', 110.0000,1,   9,   9,   3,1.05881,  -5.2481,1.10000,0.90000,1.10000,0.90000
  3271,'KISHOGE     ', 110.0000,1,  11,  11,   7,1.05689,  -7.0171,1.10000,0.90000,1.10000,0.90000
  3281,'KILLONAN    ', 110.0000,1,   8,   8,   2,1.06984,   1.0518,1.10000,0.90000,1.10000,0.90000
  3282,'KILLONAN    ', 220.0000,1,   8,   8,   2,1.05973,   3.4174,1.10000,0.90000,1.10000,0.90000
  3301,'KNOCKEARAGH ', 110.0000,1,   5,   5,   3,1.06984,   1.3274,1.10000,0.90000,1.10000,0.90000
  3321,'KNOCKUMBER  ', 110.0000,1,   7,   7,   6,1.03997, -11.6082,1.10000,0.90000,1.10000,0.90000
  3330,'BALLYNAHULLA', 110.0000,1,   5,   5,   3,1.05000,   6.2080,1.10000,0.90000,1.10000,0.90000
  3331,'BALLYNAHULLA', 110.0000,1,   5,   5,   3,1.05000,   6.2080,1.10000,0.90000,1.10000,0.90000
  3332,'BALLYNAHULLA', 220.0000,1,   5,   5,   3,1.06533,   6.2049,1.10000,0.90000,1.10000,0.90000
  3341,'KELLIS      ', 110.0000,1,   9,   9,   3,1.06399,  -4.1079,1.10000,0.90000,1.10000,0.90000
  3342,'KELLIS      ', 220.0000,1,   9,   9,   3,1.04704,  -0.8889,1.10000,0.90000,1.10000,0.90000
  3352,'KELLYSTOWN  ', 220.0000,1,  11,  11,   6,1.06320,  -3.7832,1.10000,0.90000,1.10000,0.90000
  3381,'KINNEGAD    ', 110.0000,1,  11,  11,   6,1.06827,  -9.2269,1.10000,0.90000,1.10000,0.90000
  3391,'KNOCKACUMMER', 110.0000,1,   5,   5,  17,1.05906,   6.0854,1.10000,0.90000,1.10000,0.90000
  3401,'KILLOTERAN  ', 110.0000,1,  12,  12,   3,1.05354,  -0.4099,1.10000,0.90000,1.10000,0.90000
...
0 / END OF BUS DATA, BEGIN LOAD DATA
@!   I,'ID',STAT,AREA,ZONE,      PL,        QL,        IP,        IQ,        YP,        YQ, OWNER,SCALE,INTRPT,  DGENP,     DGENQ,DGENF,'  LOAD TYPE '
    10,'LD',   1,  11,   1,    76.210,     1.870,     0.000,     0.000,     0.000,     0.000,   2,    1,  0,     0.000,     0.000,    0,'            '
    11,'LD',   1,  11,   1,    34.800,     0.230,     0.000,     0.000,     0.000,     0.000,   2,    1,  0,     0.000,     0.000,    0,'            '
    12,'LD',   1,  11,   1,    50.470,     0.080,     0.000,     0.000,     0.000,     0.000,   2,    1,  0,     0.000,     0.000,    0,'            '
    13,'LD',   1,  11,   1,    54.260,    -1.080,     0.000,     0.000,     0.000,     0.000,   2,    1,  0,     0.000,     0.000,    0,'            '
    14,'LD',   1,  11,   1,    49.980,     1.240,     0.000,     0.000,     0.000,     0.000,   2,    1,  0,     0.000,     0.000,    0,'            '
    15,'LD',   1,  11,   1,    57.310,    -3.530,     0.000,     0.000,     0.000,     0.000,   2,    1,  0,     0.000,     0.000,    0,'            '
  1101,'I ',   1,   8,   2,    14.000,     6.900,     0.000,     0.000,     0.000,     0.000,   5,    0,  0,     0.000,     0.000,    0,'            '
  1101,'MI',   0,   8,   2,     1.330,     0.100,     0.000,     0.000,     0.000,     0.000,   5,    0,  0,     0.000,     0.000,    0,'            '
  4341,'I ',   1,  10,   2,     0.300,     0.100,     0.000,     0.000,     0.000,     0.000,   5,    0,  0,     0.000,     0.000,    0,'            '
 10204,'LD',   1,   4,   1,    42.000,     4.830,     0.000,     0.000,     0.000,     0.000,   2,    1,  0,     0.000,     0.000,    0,'            '
 10205,'LD',   1,   4,   1,    30.490,     1.080,     0.000,     0.000,     0.000,     0.000,   2,    1,  0,     0.000,     0.000,    0,'            '
 10602,'LD',   1,   1,   1,     4.920,     0.030,     0.000,     0.000,     0.000,     0.000,   2,    1,  0,     0.000,     0.000,    0,'            '
 10801,'LD',   1,   8,   1,     5.120,     0.090,     0.000,     0.000,     0.000,     0.000,   2,    1,  0,     0.000,     0.000,    0,'            '
 10902,'I ',   1,  11,   2,     9.500,     3.120,     0.000,     0.000,     0.000,     0.000,   5,    0,  0,     0.000,     0.000,    0,'            '
 10902,'LD',   1,  11,   1,     9.670,     0.970,     0.000,     0.000,     0.000,     0.000,   2,    1,  0,     0.000,     0.000,    0,'            '
 10902,'MI',   0,  11,   2,     0.500,     0.000,     0.000,     0.000,     0.000,     0.000,   5,    0,  0,     0.000,     0.000,    0,'            '
 11201,'LD',   1,   9,   1,     9.530,     0.700,     0.000,     0.000,     0.000,     0.000,   2,    1,  0,     0.000,     0.000,    0,'            '
 11204,'LD',   1,   9,   1,    31.910,    -3.090,     0.000,     0.000,     0.000,     0.000,   2,    1,  0,     0.000,     0.000,    0,'            '
 11404,'LD',   1,   3,   1,    75.710,     7.840,     0.000,     0.000,     0.000,     0.000,   2,    1,  0,     0.000,     0.000,    0,'            '
 12001,'LD',   1,  11,   1,    17.590,     0.000,     0.000,     0.000,     0.000,     0.000,   2,    1,  0,     0.000,     0.000,    0,'            '
 12201,'LD',   1,  11,   1,    22.450,     4.390,     0.000,     0.000,     0.000,     0.000,   2,    1,  0,     0.000,     0.000,    0,'            '
 12702,'LD',   1,   7,   1,    15.660,    -0.660,     0.000,     0.000,     0.000,     0.000,   2,    1,  0,     0.000,     0.000,    0,'            '
 12804,'LD',   1,   6,   1,    13.100,     1.060,     0.000,     0.000,     0.000,     0.000,   2,    1,  0,     0.000,     0.000,    0,'            '
 13001,'LD',   1,   9,   1,    15.760,    -0.150,     0.000,     0.000,     0.000,     0.000,   2,    1,  0,     0.000,     0.000,    0,'            '
 13204,'LD',   1,  11,   1,    26.280,     1.230,     0.000,     0.000,     0.000,     0.000,   2,    1,  0,     0.000,     0.000,    0,'            '
 13404,'LD',   1,   1,   1,    18.710,     0.140,     0.000,     0.000,     0.000,     0.000,   2,    1,  0,     0.000,     0.000,    0,'            '
 13501,'I ',   1,  11,   2,     5.260,     0.820,     0.000,     0.000,     0.000,     0.000,   5,    0,  0,     0.000,     0.000,    0,'            '
 13501,'MI',   0,  11,   2,     4.240,     2.180,     0.000,     0.000,     0.000,     0.000,   5,    0,  0,     0.000,     0.000,    0,'            '
 13601,'I ',   1,   8,   2,     5.990,     1.670,     0.000,     0.000,     0.000,     0.000,   5,    0,  0,     0.000,     0.000,    0,'            '
 13601,'MI',   0,   8,   2,     3.220,     1.330,     0.000,     0.000,     0.000,     0.000,   5,    0,  0,     0.000,     0.000,    0,'            '
 13604,'LD',   1,   8,   1,    10.730,     1.840,     0.000,     0.000,     0.000,     0.000,   2,    1,  0,     0.000,     0.000,    0,'            '
 13702,'I ',   1,  11,   2,    14.910,     1.640,     0.000,     0.000,     0.000,     0.000,   5,    0,  0,     0.000,     0.000,    0,'            '
 13702,'MI',   0,  11,   2,    26.840,     2.950,     0.000,     0.000,     0.000,     0.000,   5,    0,  0,     0.000,     0.000,    0,'            '
 13802,'LD',   1,  10,   1,    25.800,     4.120,     0.000,     0.000,     0.000,     0.000,   2,    1,  0,     0.000,     0.000,    0,'            '
 13804,'LD',   1,  10,   1,     8.600,     1.370,     0.000,     0.000,     0.000,     0.000,   2,    1,  0,     0.000,     0.000,    0,'            '
 13812,'LD',   1,  10,   1,     4.780,     0.760,     0.000,     0.000,     0.000,     0.000,   2,    1,  0,     0.000,     0.000,    0,'            '
 14004,'LD',   1,   2,   1,     5.260,    -0.440,     0.000,     0.000,     0.000,     0.000,   2,    1,  0,     0.000,     0.000,    0,'            '
 14102,'I ',   1,  11,   2,    56.940,     2.550,     0.000,     0.000,     0.000,     0.000,   5,    0,  0,     0.000,     0.000,    0,'            '
 14102,'MI',   0,  11,   2,     9.560,     0.430,     0.000,     0.000,     0.000,     0.000,   5,    0,  0,     0.000,     0.000,    0,'            '
 14204,'LD',   1,  11,   1,    62.490,    17.870,     0.000,     0.000,     0.000,     0.000,   2,    1,  0,     0.000,     0.000,    0,'            '
 14304,'LD',   1,   9,   1,    23.590,     5.120,     0.000,     0.000,     0.000,     0.000,   2,    1,  0,     0.000,     0.000,    0,'            '
 14401,'LD',   1,   6,   1,    12.160,     1.470,     0.000,     0.000,     0.000,     0.000,   2,    1,  0,     0.000,     0.000,    0,'            '
 14404,'LD',   1,   6,   1,    34.630,     4.880,     0.000,     0.000,     0.000,     0.000,   2,    1,  0,     0.000,     0.000,    0,'            '
 14502,'I ',   1,  11,   2,    71.000,     9.500,     0.000,     0.000,     0.000,     0.000,   5,    0,  0,     0.000,     0.000,    0,'            '
 14502,'MI',   0,  11,   2,    14.500,     2.050,     0.000,     0.000,     0.000,     0.000,   5,    0,  0,     0.000,     0.000,    0,'            '
 14604,'LD',   1,   8,   1,    31.460,     2.250,     0.000,     0.000,     0.000,     0.000,   2,    1,  0,     0.000,     0.000,    0,'            '
 14804,'LD',   1,  12,   1,    42.290,     4.360,     0.000,     0.000,     0.000,     0.000,   2,    1,  0,     0.000,     0.000,    0,'            '
 15001,'I ',   1,   6,   2,     3.950,     0.980,     0.000,     0.000,     0.000,     0.000,   5,    0,  0,     0.000,     0.000,    0,'            '
 15001,'MI',   0,   6,   2,     2.220,     1.020,     0.000,     0.000,     0.000,     0.000,   5,    0,  0,     0.000,     0.000,    0,'            '
 15202,'I ',   1,  11,   2,   127.740,     8.090,     0.000,     0.000,     0.000,     0.000,   5,    0,  0,     0.000,     0.000,    0,'            '
 15202,'MI',   0,  11,   2,    21.950,     1.390,     0.000,     0.000,     0.000,     0.000,   5,    0,  0,     0.000,     0.000,    0,'            '
 15402,'LD',   1,   9,   1,     7.740,     0.000,     0.000,     0.000,     0.000,     0.000,   2,    1,  0,     0.000,     0.000,    0,'            '
 15602,'I ',   1,  11,   2,    30.000,     0.000,     0.000,     0.000,     0.000,     0.000,   5,    0,  0,     0.000,     0.000,    0,'            '
 15602,'MI',   0,  11,   2,    15.000,     0.000,     0.000,     0.000,     0.000,     0.000,   5,    0,  0,     0.000,     0.000,    0,'            '
 15704,'LD',   1,   1,   1,     9.670,     1.930,     0.000,     0.000,     0.000,     0.000,   2,    1,  0,     0.000,     0.000,    0,'            '
 15801,'LD',   1,  11,   1,    13.210,     3.820,     0.000,     0.000,     0.000,     0.000,   2,    1,  0,     0.000,     0.000,    0,'            '
 16202,'LD',   1,  10,   1,    10.890,     0.000,     0.000,     0.000,     0.000,     0.000,   2,    1,  0,     0.000,     0.000,    0,'            '
 16604,'LD',   1,   2,   1,    29.850,     2.380,     0.000,     0.000,     0.000,     0.000,   2,    1,  0,     0.000,     0.000,    0,'            '
 16901,'LD',   1,  11,   1,     9.670,    -0.490,     0.000,     0.000,     0.000,     0.000,   2,    1,  0,     0.000,     0.000,    0,'            '
 17004,'LD',   1,   1,   1,    17.040,     3.940,     0.000,     0.000,     0.000,     0.000,   2,    1,  0,     0.000,     0.000,    0,'            '
 17204,'LD',   1,   8,   1,    26.870,     3.580,     0.000,     0.000,     0.000,     0.000,   2,    1,  0,     0.000,     0.000,    0,'            '
 17404,'LD',   1,  11,   1,    67.690,     2.780,     0.000,     0.000,     0.000,     0.000,   2,    1,  0,     0.000,     0.000,    0,'            '
 17802,'I ',   1,   5,   2,    50.800,    24.520,     0.000,     0.000,     0.000,     0.000,   5,    0,  0,     0.000,     0.000,    0,'            '
 18001,'LD',   1,  11,   1,    14.960,     1.160,     0.000,     0.000,     0.000,     0.000,   2,    1,  0,     0.000,     0.000,    0,'            '
 18004,'LD',   1,  11,   1,    60.700,    17.690,     0.000,     0.000,     0.000,     0.000,   2,    1,  0,     0.000,     0.000,    0,'            '
 18101,'I ',   1,  11,   2,   117.290,    12.910,     0.000,     0.000,     0.000,     0.000,   5,    0,  0,     0.000,     0.000,    0,'            '
 18101,'MI',   0,  11,   2,    23.860,     2.620,     0.000,     0.000,     0.000,     0.000,   5,    0,  0,     0.000,     0.000,    0,'            '
 18102,'I ',   1,  11,   2,    37.920,     2.400,     0.000,     0.000,     0.000,     0.000,   5,    0,  0,     0.000,     0.000,    0,'            '
 18102,'MI',   0,  11,   2,    86.830,     5.500,     0.000,     0.000,     0.000,     0.000,   5,    0,  0,     0.000,     0.000,    0,'            '
 18204,'LD',   1,   2,   1,    27.310,     4.060,     0.000,     0.000,     0.000,     0.000,   2,    1,  0,     0.000,     0.000,    0,'            '
 18304,'LD',   1,   2,   1,    20.240,     0.630,     0.000,     0.000,     0.000,     0.000,   2,    1,  0,     0.000,     0.000,    0,'            '
 18402,'LD',   1,   9,   1,    12.820,     0.540,     0.000,     0.000,     0.000,     0.000,   2,    1,  0,     0.000,     0.000,    0,'            '
 18404,'LD',   1,   9,   1,    26.000,     2.950,     0.000,     0.000,     0.000,     0.000,   2,    1,  0,     0.000,     0.000,    0,'            '
 18504,'LD',   1,  11,   1,    22.200,     0.400,     0.000,     0.000,     0.000,     0.000,   2,    1,  0,     0.000,     0.000,    0,'            '
 18604,'LD',   1,   3,   1,    29.730,     2.130,     0.000,     0.000,     0.000,     0.000,   2,    1,  0,     0.000,     0.000,    0,'            '
 18701,'LD',   1,  11,   1,    23.050,     0.800,     0.000,     0.000,     0.000,     0.000,   2,    1,  0,     0.000,     0.000,    0,'            '
 18804,'LD',   1,   5,   1,    21.590,     3.570,     0.000,     0.000,     0.000,     0.000,   2,    1,  0,     0.000,     0.000,    0,'            '
 19004,'LD',   1,   9,   1,    65.540,     5.790,     0.000,     0.000,     0.000,     0.000,   2,    1,  0,     0.000,     0.000,    0,'            '
 19204,'LD',   1,  10,   1,    16.440,     0.780,     0.000,     0.000,     0.000,     0.000,   2,    1,  0,     0.000,     0.000,    0,'            '
 19504,'LD',   1,   2,   1,    17.020,     1.460,     0.000,     0.000,     0.000,     0.000,   2,    1,  0,     0.000,     0.000,    0,'            '
 19601,'LD',   1,  10,   1,    28.710,     2.550,     0.000,     0.000,     0.000,     0.000,   2,    1,  0,     0.000,     0.000,    0,'            '
 20201,'LD',   1,  11,   1,    13.440,     3.900,     0.000,     0.000,     0.000,     0.000,   2,    1,  0,     0.000,     0.000,    0,'            '
 20402,'LD',   1,  11,   1,    33.410,     4.220,     0.000,     0.000,     0.000,     0.000,   2,    1,  0,     0.000,     0.000,    0,'            '
 20701,'I ',   1,  11,   2,    66.930,     3.000,     0.000,     0.000,     0.000,     0.000,   5,    0,  0,     0.000,     0.000,    0,'            '
 20701,'MI',   0,  11,   2,   172.830,     7.730,     0.000,     0.000,     0.000,     0.000,   5,    0,  0,     0.000,     0.000,    0,'            '
 21004,'LD',   1,   7,   1,    60.050,     4.160,     0.000,     0.000,     0.000,     0.000,   2,    1,  0,     0.000,     0.000,    0,'            '
 21204,'LD',   1,   4,   1,    26.490,     3.970,     0.000,     0.000,     0.000,     0.000,   2,    1,  0,     0.000,     0.000,    0,'            '
 21404,'LD',   1,  12,   1,    46.160,     4.710,     0.000,     0.000,     0.000,     0.000,   2,    1,  0,     0.000,     0.000,    0,'            '
 21604,'LD',   1,   8,   1,    28.410,     3.320,     0.000,     0.000,     0.000,     0.000,   2,    1,  0,     0.000,     0.000,    0,'            '
 21804,'LD',   1,   7,   1,    89.750,     4.470,     0.000,     0.000,     0.000,     0.000,   2,    1,  0,     0.000,     0.000,    0,'            '
 22208,'LD',   1,   6,   1,    35.320,     3.420,     0.000,     0.000,     0.000,     0.000,   2,    1,  0,     0.000,     0.000,    0,'            '
 22404,'LD',   1,   8,   1,    19.440,     1.790,     0.000,     0.000,     0.000,     0.000,   2,    1,  0,     0.000,     0.000,    0,'            '
 22501,'LD',   1,  11,   1,     9.670,     2.230,     0.000,     0.000,     0.000,     0.000,   2,    1,  0,     0.000,     0.000,    0,'            '
 22804,'LD',   1,   2,   1,    29.140,     3.860,     0.000,     0.000,     0.000,     0.000,   2,    1,  0,     0.000,     0.000,    0,'            '
 23002,'LD',   1,  11,   1,    10.080,     0.020,     0.000,     0.000,     0.000,     0.000,   2,    1,  0,     0.000,     0.000,    0,'            '
 23601,'LD',   1,   4,   1,    13.540,     0.970,     0.000,     0.000,     0.000,     0.000,   2,    1,  0,     0.000,     0.000,    0,'            '
 23604,'LD',   1,   4,   1,    51.360,     5.710,     0.000,     0.000,     0.000,     0.000,   2,    1,  0,     0.000,     0.000,    0,'            '
 24202,'I ',   1,  11,   2,   124.880,     5.590,     0.000,     0.000,     0.000,     0.000,   5,    0,  0,     0.000,     0.000,    0,'            '
 24202,'MI',   0,  11,   2,    58.940,     2.640,     0.000,     0.000,     0.000,     0.000,   5,    0,  0,     0.000,     0.000,    0,'            '
 24804,'LD',   1,  11,   1,    59.470,     0.150,     0.000,     0.000,     0.000,     0.000,   2,    1,  0,     0.000,     0.000,    0,'            '
 25604,'LD',   1,  11,   1,    55.870,     4.060,     0.000,     0.000,     0.000,     0.000,   2,    1,  0,     0.000,     0.000,    0,'            '
 25901,'LD',   1,  11,   1,    15.150,     0.480,     0.000,     0.000,     0.000,     0.000,   2,    1,  0,     0.000,     0.000,    0,'            '
 26802,'I ',   1,   3,   2,    11.420,     2.830,     0.000,     0.000,     0.000,     0.000,   5,    0,  0,     0.000,     0.000,    0,'            '
 27004,'LD',   1,  11,   1,    69.250,    19.720,     0.000,     0.000,     0.000,     0.000,   2,    1,  0,     0.000,     0.000,    0,'            '
 27204,'LD',   1,  11,   1,    67.690,     2.210,     0.000,     0.000,     0.000,     0.000,   2,    1,  0,     0.000,     0.000,    0,'            '
 27404,'LD',   1,   9,   1,    19.820,     3.300,     0.000,     0.000,     0.000,     0.000,   2,    1,  0,     0.000,     0.000,    0,'            '
 27604,'LD',   1,  11,   1,    57.720,    12.350,     0.000,     0.000,     0.000,     0.000,   2,    1,  0,     0.000,     0.000,    0,'            '
 27801,'LD',   1,   2,   1,    13.280,     0.730,     0.000,     0.000,     0.000,     0.000,   2,    1,  0,     0.000,     0.000,    0,'            '
 27804,'LD',   1,   2,   1,    76.390,     6.350,     0.000,     0.000,     0.000,     0.000,   2,    1,  0,     0.000,     0.000,    0,'            '
 28201,'I ',   1,   1,   2,    22.800,     7.490,     0.000,     0.000,     0.000,     0.000,   5,    0,  0,     0.000,     0.000,    0,'            '
 28204,'LD',   1,   1,   1,    10.640,     1.930,     0.000,     0.000,     0.000,     0.000,   2,    1,  0,     0.000,     0.000,    0,'            '
 28601,'LD',   1,  11,   1,    19.170,     0.080,     0.000,     0.000,     0.000,     0.000,   2,    1,  0,     0.000,     0.000,    0,'            '
 28604,'LD',   1,  11,   1,    43.630,    -0.870,     0.000,     0.000,     0.000,     0.000,   2,    1,  0,     0.000,     0.000,    0,'            '
 28804,'LD',   1,   5,   1,    14.360,     2.910,     0.000,     0.000,     0.000,     0.000,   2,    1,  0,     0.000,     0.000,    0,'            '
 29401,'LD',   1,  11,   1,    18.640,     5.420,     0.000,     0.000,     0.000,     0.000,   2,    1,  0,     0.000,     0.000,    0,'            '
 29501,'LD',   1,  11,   1,     9.670,     0.440,     0.000,     0.000,     0.000,     0.000,   2,    1,  0,     0.000,     0.000,    0,'            '
 30804,'LD',   1,  11,   1,    55.880,    -0.520,     0.000,     0.000,     0.000,     0.000,   2,    1,  0,     0.000,     0.000,    0,'            '
 31004,'LD',   1,   8,   1,    25.850,     3.580,     0.000,     0.000,     0.000,     0.000,   2,    1,  0,     0.000,     0.000,    0,'            '
 32201,'LD',   1,  10,   1,    14.670,     0.340,     0.000,     0.000,     0.000,     0.000,   2,    1,  0,     0.000,     0.000,    0,'            '
 32204,'LD',   1,  10,   1,    70.540,     2.720,     0.000,     0.000,     0.000,     0.000,   2,    1,  0,     0.000,     0.000,    0,'            '
 32404,'LD',   1,  11,   1,    34.100,     4.460,     0.000,     0.000,     0.000,     0.000,   2,    1,  0,     0.000,     0.000,    0,'            '
 32604,'LD',   1,   9,   1,    51.340,     6.180,     0.000,     0.000,     0.000,     0.000,   2,    1,  0,     0.000,     0.000,    0,'            '
 32702,'I ',   1,  11,   2,     2.970,     0.420,     0.000,     0.000,     0.000,     0.000,   5,    0,  0,     0.000,     0.000,    0,'            '
 32702,'MI',   0,  11,   2,    44.550,     6.350,     0.000,     0.000,     0.000,     0.000,   5,    0,  0,     0.000,     0.000,    0,'            '
 33004,'LD',   1,   5,   1,    41.320,     4.800,     0.000,     0.000,     0.000,     0.000,   2,    1,  0,     0.000,     0.000,    0,'            '
 33201,'I ',   1,   7,   2,    23.660,    10.990,     0.000,     0.000,     0.000,     0.000,   5,    0,  0,     0.000,     0.000,    0,'            '
 33201,'MI',   0,   7,   2,     4.550,     1.810,     0.000,     0.000,     0.000,     0.000,   5,    0,  0,     0.000,     0.000,    0,'            '
 33502,'I ',   1,  11,   2,   116.850,    38.410,     0.000,     0.000,     0.000,     0.000,   5,    0,  0,     0.000,     0.000,    0,'            '
 33502,'MI',   0,  11,   2,    77.900,    25.600,     0.000,     0.000,     0.000,     0.000,   5,    0,  0,     0.000,     0.000,    0,'            '
 33801,'I ',   1,  11,   2,    10.190,     2.440,     0.000,     0.000,     0.000,     0.000,   5,    0,  0,     0.000,     0.000,    0,'            '
 33801,'MI',   0,  11,   2,     1.530,     1.560,     0.000,     0.000,     0.000,     0.000,   5,    0,  0,     0.000,     0.000,    0,'            '
 34001,'LD',   1,  12,   1,    10.660,     1.750,     0.000,     0.000,     0.000,     0.000,   2,    1,  0,     0.000,     0.000,    0,'            '
 34301,'I ',   1,  11,   2,    29.610,     4.820,     0.000,     0.000,     0.000,     0.000,   5,    0,  0,     0.000,     0.000,    0,'            '
 34301,'MI',   0,  11,   2,    13.820,     2.250,     0.000,     0.000,     0.000,     0.000,   5,    0,  0,     0.000,     0.000,    0,'            '
 35004,'LD',   1,   3,   1,    17.860,     1.580,     0.000,     0.000,     0.000,     0.000,   2,    1,  0,     0.000,     0.000,    0,'            '
 35404,'LD',   1,   5,   1,    80.740,     5.820,     0.000,     0.000,     0.000,     0.000,   2,    1,  0,     0.000,     0.000,    0,'            '
 35604,'LD',   1,   7,   1,    34.850,     7.260,     0.000,     0.000,     0.000,     0.000,   2,    1,  0,     0.000,     0.000,    0,'            '
 35804,'LD',   1,   1,   1,    66.080,     7.240,     0.000,     0.000,     0.000,     0.000,   2,    1,  0,     0.000,     0.000,    0,'            '
 36001,'LD',   1,  10,   1,    23.210,     1.630,     0.000,     0.000,     0.000,     0.000,   2,    1,  0,     0.000,     0.000,    0,'            '
 36503,'I ',   1,  11,   2,    18.000,     0.000,     0.000,     0.000,     0.000,     0.000,   5,    0,  0,     0.000,     0.000,    0,'            '
 36503,'MI',   0,  11,   2,    32.000,     0.000,     0.000,     0.000,     0.000,     0.000,   5,    0,  0,     0.000,     0.000,    0,'            '
 36802,'I ',   1,  11,   2,    13.980,     1.090,     0.000,     0.000,     0.000,     0.000,   5,    0,  0,     0.000,     0.000,    0,'            '
 36802,'MI',   0,  11,   2,    65.780,     5.100,     0.000,     0.000,     0.000,     0.000,   5,    0,  0,     0.000,     0.000,    0,'            '
 37501,'LD',   1,  11,   1,    18.380,    -0.400,     0.000,     0.000,     0.000,     0.000,   2,    1,  0,     0.000,     0.000,    0,'            '
 37601,'LD',   1,  11,   1,    20.600,    -0.150,     0.000,     0.000,     0.000,     0.000,   2,    1,  0,     0.000,     0.000,    0,'            '
 37602,'I ',   1,  11,   2,     4.580,     0.550,     0.000,     0.000,     0.000,     0.000,   5,    0,  0,     0.000,     0.000,    0,'            '
 37602,'MI',   0,  11,   2,     5.860,     2.450,     0.000,     0.000,     0.000,     0.000,   5,    0,  0,     0.000,     0.000,    0,'            '
 38001,'LD',   1,  10,   1,    15.070,     1.230,     0.000,     0.000,     0.000,     0.000,   2,    1,  0,     0.000,     0.000,    0,'            '
 38004,'LD',   1,  10,   1,    27.890,     3.350,     0.000,     0.000,     0.000,     0.000,   2,    1,  0,     0.000,     0.000,    0,'            '
 38204,'LD',   1,   7,   1,    52.220,    10.150,     0.000,     0.000,     0.000,     0.000,   2,    1,  0,     0.000,     0.000,    0,'            '
 38601,'LD',   1,  11,   1,     8.310,    -0.200,     0.000,     0.000,     0.000,     0.000,   2,    1,  0,     0.000,     0.000,    0,'            '
 38701,'LD',   1,  11,   1,    12.420,    -0.290,     0.000,     0.000,     0.000,     0.000,   2,    1,  0,     0.000,     0.000,    0,'            '
 38804,'LD',   1,   6,   1,    18.370,    10.530,     0.000,     0.000,     0.000,     0.000,   2,    1,  0,     0.000,     0.000,    0,'            '
 39601,'LD',   1,  10,   1,    19.340,     0.800,     0.000,     0.000,     0.000,     0.000,   2,    1,  0,     0.000,     0.000,    0,'            '
 39801,'I ',   1,   5,   2,    21.500,    12.100,     0.000,     0.000,     0.000,     0.000,   5,    0,  0,     0.000,     0.000,    0,'            '
 40001,'LD',   1,   3,   1,    15.090,     0.520,     0.000,     0.000,     0.000,     0.000,   2,    1,  0,     0.000,     0.000,    0,'            '
 40004,'LD',   1,   3,   1,    34.220,     3.860,     0.000,     0.000,     0.000,     0.000,   2,    1,  0,     0.000,     0.000,    0,'            '
 40204,'LD',   1,   5,   1,    23.460,     2.810,     0.000,     0.000,     0.000,     0.000,   2,    1,  0,     0.000,     0.000,    0,'            '
 40404,'LD',   1,   2,   1,    26.880,     1.370,     0.000,     0.000,     0.000,     0.000,   2,    1,  0,     0.000,     0.000,    0,'            '
 40602,'I ',   1,   7,   2,     4.460,     1.330,     0.000,     0.000,     0.000,     0.000,   5,    0,  0,     0.000,     0.000,    0,'            '
 40602,'LD',   1,   7,   1,     3.340,    -0.390,     0.000,     0.000,     0.000,     0.000,   2,    1,  0,     0.000,     0.000,    0,'            '
 40602,'MI',   0,   7,   2,     0.830,     0.170,     0.000,     0.000,     0.000,     0.000,   5,    0,  0,     0.000,     0.000,    0,'            '
 40801,'LD',   1,  11,   1,    19.130,     2.560,     0.000,     0.000,     0.000,     0.000,   2,    1,  0,     0.000,     0.000,    0,'            '
 41002,'I ',   1,  11,   2,    32.000,     6.210,     0.000,     0.000,     0.000,     0.000,   5,    0,  0,     0.000,     0.000,    0,'            '
 41002,'MI',   0,  11,   2,    12.140,     2.520,     0.000,     0.000,     0.000,     0.000,   5,    0,  0,     0.000,     0.000,    0,'            '
 41102,'I ',   1,  11,   2,    43.000,     7.170,     0.000,     0.000,     0.000,     0.000,   5,    0,  0,     0.000,     0.000,    0,'            '
 41102,'MI',   0,  11,   2,    20.100,     3.500,     0.000,     0.000,     0.000,     0.000,   5,    0,  0,     0.000,     0.000,    0,'            '
 42004,'LD',   1,  11,   1,    46.450,     4.960,     0.000,     0.000,     0.000,     0.000,   2,    1,  0,     0.000,     0.000,    0,'            '
 42101,'LD',   1,  11,   1,    21.800,    -0.480,     0.000,     0.000,     0.000,     0.000,   2,    1,  0,     0.000,     0.000,    0,'            '
 42204,'LD',   1,   7,   1,    67.020,     8.310,     0.000,     0.000,     0.000,     0.000,   2,    1,  0,     0.000,     0.000,    0,'            '
 42604,'LD',   1,   8,   1,    24.880,     4.770,     0.000,     0.000,     0.000,     0.000,   2,    1,  0,     0.000,     0.000,    0,'            '
 42802,'I ',   1,  11,   2,    11.110,     2.630,     0.000,     0.000,     0.000,     0.000,   5,    0,  0,     0.000,     0.000,    0,'            '
 42802,'MI',   0,  11,   2,    14.890,     5.370,     0.000,     0.000,     0.000,     0.000,   5,    0,  0,     0.000,     0.000,    0,'            '
 43604,'LD',   1,   5,   1,    26.000,     0.510,     0.000,     0.000,     0.000,     0.000,   2,    1,  0,     0.000,     0.000,    0,'            '
 44001,'LD',   1,  11,   1,    28.350,     0.880,     0.000,     0.000,     0.000,     0.000,   2,    1,  0,     0.000,     0.000,    0,'            '
 44804,'LD',   1,  11,   1,    43.850,     2.660,     0.000,     0.000,     0.000,     0.000,   2,    1,  0,     0.000,     0.000,    0,'            '
 44901,'LD',   1,  11,   1,    14.180,    -0.480,     0.000,     0.000,     0.000,     0.000,   2,    1,  0,     0.000,     0.000,    0,'            '
 45001,'I ',   1,   7,   2,    18.000,     5.900,     0.000,     0.000,     0.000,     0.000,   5,    0,  0,     0.000,     0.000,    0,'            '
 45001,'MI',   0,   7,   2,    29.500,     4.100,     0.000,     0.000,     0.000,     0.000,   5,    0,  0,     0.000,     0.000,    0,'            '
 45101,'LD',   1,  11,   1,    15.940,     0.690,     0.000,     0.000,     0.000,     0.000,   2,    1,  0,     0.000,     0.000,    0,'            '
 46210,'I ',   1,  11,   2,    34.840,    14.000,     0.000,     0.000,     0.000,     0.000,   5,    0,  0,     0.000,     0.000,    0,'            '
 46214,'I ',   1,  11,   2,    34.840,    14.000,     0.000,     0.000,     0.000,     0.000,   5,    0,  0,     0.000,     0.000,    0,'            '
 46224,'I ',   1,  11,   2,    34.840,    14.000,     0.000,     0.000,     0.000,     0.000,   5,    0,  0,     0.000,     0.000,    0,'            '
 46501,'LD',   1,  11,   1,    11.410,     3.160,     0.000,     0.000,     0.000,     0.000,   2,    1,  0,     0.000,     0.000,    0,'            '
 46804,'LD',   1,   5,   1,    41.870,     1.170,     0.000,     0.000,     0.000,     0.000,   2,    1,  0,     0.000,     0.000,    0,'            '
 46902,'I ',   1,   7,   2,    12.800,     2.240,     0.000,     0.000,     0.000,     0.000,   5,    0,  0,     0.000,     0.000,    0,'            '
 46902,'MI',   0,   7,   2,    85.700,    15.020,     0.000,     0.000,     0.000,     0.000,   5,    0,  0,     0.000,     0.000,    0,'            '
 47004,'LD',   1,   3,   1,    39.510,     6.540,     0.000,     0.000,     0.000,     0.000,   2,    1,  0,     0.000,     0.000,    0,'            '
 47402,'I ',   1,  11,   2,     9.130,     1.430,     0.000,     0.000,     0.000,     0.000,   5,    0,  0,     0.000,     0.000,    0,'            '
 47402,'MI',   0,  11,   2,     6.060,     3.570,     0.000,     0.000,     0.000,     0.000,   5,    0,  0,     0.000,     0.000,    0,'            '
 49001,'I ',   1,   9,   2,     2.290,     0.700,     0.000,     0.000,     0.000,     0.000,   5,    0,  0,     0.000,     0.000,    0,'            '
 49001,'MI',   0,   9,   2,     1.000,     0.000,     0.000,     0.000,     0.000,     0.000,   5,    0,  0,     0.000,     0.000,    0,'            '
 49504,'LD',   1,   2,   1,    45.840,    -1.650,     0.000,     0.000,     0.000,     0.000,   2,    1,  0,     0.000,     0.000,    0,'            '
 49604,'LD',   1,   7,   1,    54.510,    10.330,     0.000,     0.000,     0.000,     0.000,   2,    1,  0,     0.000,     0.000,    0,'            '
 49804,'LD',   1,   2,   1,    54.190,     2.960,     0.000,     0.000,     0.000,     0.000,   2,    1,  0,     0.000,     0.000,    0,'            '
 50004,'LD',   1,   3,   1,    24.390,     3.360,     0.000,     0.000,     0.000,     0.000,   2,    1,  0,     0.000,     0.000,    0,'            '
 50301,'LD',   1,  11,   1,    10.660,    -0.060,     0.000,     0.000,     0.000,     0.000,   2,    1,  0,     0.000,     0.000,    0,'            '
 50604,'LD',   1,   9,   1,    22.680,     2.480,     0.000,     0.000,     0.000,     0.000,   2,    1,  0,     0.000,     0.000,    0,'            '
 50901,'LD',   1,   4,   1,    15.360,     1.000,     0.000,     0.000,     0.000,     0.000,   2,    1,  0,     0.000,     0.000,    0,'            '
 51101,'I ',   1,  11,   2,    13.970,     0.880,     0.000,     0.000,     0.000,     0.000,   5,    0,  0,     0.000,     0.000,    0,'            '
...
0 / END OF LOAD DATA, BEGIN FIXED SHUNT DATA
@!   I,'ID',STATUS,  GL,        BL
  3934,'1 ',1,     0.000,     6.000
  3944,'1 ',1,     0.000,     6.000
  3954,'1 ',1,     0.000,     6.000
 13124,'1 ',1,     0.000,    10.000
 27361,'1 ',1,     0.000,     1.200
 33902,'1 ',1,     0.000,     6.000
 54630,'1 ',1,     0.000,   105.000
 54640,'1 ',1,     0.000,    41.000
0 / END OF FIXED SHUNT DATA, BEGIN GENERATOR DATA
@!   I,'ID',      PG,        QG,        QT,        QB,     VS,    IREG,NREG,     MBASE,     ZR,         ZX,         RT,         XT,     GTAP,STAT, RMPCT,      PT,        PB,BASLOD,O1,    F1,  O2,    F2,  O3,    F3,  O4,    F4,WMOD, WPF
 10271,'1 ',    21.000,    -7.000,    15.000,    -7.000,1.05000,  1021,   0,    34.000, 0.00000E+0, 2.20000E-1, 0.00000E+0, 0.00000E+0,1.00000,1,   15.0,    21.000,     5.000, 0,  13,1.0000
 10272,'2 ',    22.000,    -7.000,    15.000,    -7.000,1.05000,  1021,   0,    34.000, 0.00000E+0, 2.20000E-1, 0.00000E+0, 0.00000E+0,1.00000,1,   15.0,    22.000,     5.000, 0,  13,1.0000
 10273,'3 ',    19.000,    -7.000,    15.000,    -7.000,1.05000,  1021,   0,    34.000, 0.00000E+0, 2.20000E-1, 0.00000E+0, 0.00000E+0,1.00000,1,   15.0,    19.000,     5.000, 0,  13,1.0000
 10274,'4 ',    24.000,    -7.000,    15.000,    -7.000,1.05000,  1021,   0,    34.000, 0.00000E+0, 2.20000E-1, 0.00000E+0, 0.00000E+0,1.00000,1,   15.0,    24.000,     5.000, 0,  13,1.0000
 10275,'3 ',     7.125,     0.000,     0.000,     0.000,1.05000, 10275,   0,     8.350, 9.20000E-3, 2.00000E-1, 0.00000E+0, 0.00000E+0,1.00000,0,  100.0,     7.500,     0.000, 0,  21,1.0000,   0,   1.0,   0,   1.0,   0,   1.0, 3,-0.9800
 10276,'2 ',     0.627,     0.000,     0.000,     0.000,1.05000, 10276,   0,     0.850, 7.30000E-3, 2.00000E-1, 0.00000E+0, 0.00000E+0,1.00000,0,  100.0,     0.660,     0.000, 0,  21,1.0000,   0,   1.0,   0,   1.0,   0,   1.0, 3,-0.9800
 10401,'1 ',    18.050,     0.000,     0.000,     0.000,1.00000, 10401,   0,    20.000, 4.00000E-3, 8.33000E-1, 0.00000E+0, 0.00000E+0,1.00000,0,  100.0,    19.000,   -19.000, 0,  14,1.0000,   0,   1.0,   0,   1.0,   0,   1.0, 3,-0.9800
 10470,'1 ',   456.000,     5.365,   270.000,  -170.000,1.06000,  1042,   0,   500.000, 2.70000E-3, 1.80000E-1, 0.00000E+0, 0.00000E+0,1.00000,1,  270.0,   456.690,   222.000, 0,   9,1.0000
 10471,'1 ',   151.050,     0.000,    40.000,   -30.000,1.06000,  1042,   0,   167.000, 0.00000E+0, 8.33000E-1, 0.00000E+0, 0.00000E+0,1.00000,0,  100.0,   159.000,  -159.000, 0,  14,1.0000,   0,   1.0,   0,   1.0,   0,   1.0, 1, 1.0000
 10472,'11',    90.000,     1.192,    60.000,   -30.000,1.06000,  1042,   0,   100.900, 0.00000E+0, 1.25000E-1, 0.00000E+0, 0.00000E+0,1.00000,1,   60.0,    90.000,    13.000, 0,   9,1.0000
 10473,'12',    90.000,     1.192,    60.000,   -30.000,1.06000,  1042,   0,   100.900, 0.00000E+0, 1.25000E-1, 0.00000E+0, 0.00000E+0,1.00000,1,   60.0,    90.000,    13.000, 0,   9,1.0000
 10474,'14',    90.000,     1.192,    60.000,   -30.000,1.06000,  1042,   0,   100.900, 0.00000E+0, 1.25000E-1, 0.00000E+0, 0.00000E+0,1.00000,1,   60.0,    90.000,    13.000, 0,   9,1.0000
 10671,'2 ',     4.560,    -1.940,    -1.940,    -1.940,1.04000, 10671,   0,     4.800, 2.04000E-2, 1.66000E-1, 0.00000E+0, 0.00000E+0,1.00000,0,  100.0,     4.800,     0.000, 0,  20,1.0000,   0,   1.0,   0,   1.0,   0,   1.0, 3,-0.9800
 10672,'3 ',     4.750,    -2.000,    -2.000,    -2.000,1.04000, 10672,   0,     6.000, 2.04000E-2, 1.66000E-1, 0.00000E+0, 0.00000E+0,1.00000,0,  100.0,     5.000,     0.000, 0,  20,1.0000,   0,   1.0,   0,   1.0,   0,   1.0, 3,-0.9800
 10673,'1 ',     1.140,    -0.480,    -0.480,    -0.480,1.05000, 10673,   0,     1.200, 2.04000E-2, 1.66000E-1, 0.00000E+0, 0.00000E+0,1.00000,0,  100.0,     1.200,     0.000, 0,  20,1.0000,   0,   1.0,   0,   1.0,   0,   1.0, 3,-0.9800
 10674,'5 ',     4.370,     0.000,    -1.770,    -2.300,1.04000, 10674,   0,     4.600, 2.57000E-2, 1.66000E-1, 0.00000E+0, 0.00000E+0,1.00000,0,  100.0,     4.600,     0.000, 0,  20,1.0000,   0,   1.0,   0,   1.0,   0,   1.0, 3,-0.9800
 11204,'1 ',     0.950,     0.000,    -0.810,    -0.810,1.00000, 11204,   0,     1.600, 0.00000E+0, 2.00000E-1, 1.00000E-2, 6.00000E-2,1.00000,0,  100.0,     1.000,     0.000, 0,  15,1.0000
 11271,'1 ',    23.940,     0.000,     0.000,     0.000,1.04000, 11271,   0,    28.000, 3.20000E-3, 2.00000E-1, 0.00000E+0, 0.00000E+0,1.00000,0,  100.0,    25.200,     0.000, 0,  20,1.0000,   0,   1.0,   0,   1.0,   0,   1.0, 3,-0.9800
 11272,'1 ',     3.800,     0.000,     0.000,     0.000,1.00000, 11272,   0,     4.170, 2.54000E-1, 8.33000E-1, 0.00000E+0, 0.00000E+0,1.00000,0,  100.0,     4.000,     0.000, 0,  23,1.0000,   0,   1.0,   0,   1.0,   0,   1.0, 3,-0.9800
 11303,'1 ',    10.450,     0.000,    10.000,    -8.000,1.05000,  1131,   0,    12.000, 3.20000E-3, 8.33000E-1, 0.00000E+0, 1.00000E-1,1.00000,0,    6.0,    11.000,   -11.000, 0,  14,1.0000,   0,   1.0,   0,   1.0,   0,   1.0, 1, 1.0000
 11371,'1 ',    32.632,     0.000,    13.000,   -18.000,1.05000,  1131,   0,    34.350, 7.10000E-3, 2.00000E-1, 0.00000E+0, 0.00000E+0,1.00000,0,   11.0,    34.350,     0.000, 0,  17,1.0000,   0,   1.0,   0,   1.0,   0,   1.0, 1, 1.0000
 11372,'1 ',    21.993,     0.000,     6.155,    -6.155,1.05000,  1131,   0,    23.150, 3.20000E-3, 2.00000E-1, 0.00000E+0, 0.00000E+0,1.00000,0,    6.0,    23.150,     0.000, 0,  17,1.0000,   0,   1.0,   0,   1.0,   0,   1.0, 1, 1.0000
 12101,'XX',     0.000,   -82.183,   100.000,  -100.000,1.05000,  1211,   0,   100.000, 0.00000E+0, 8.33000E-1, 0.00000E+0, 0.00000E+0,1.00000,1,  100.0,     0.000,     0.000, 0,  25,1.0000,   0,   1.0,   0,   1.0,   0,   1.0, 1, 1.0000
 12371,'1 ',    29.925,     0.000,     7.000,    -7.000,1.05000,  1231,   0,    32.000, 2.57000E-2, 8.33000E-1, 0.00000E+0, 0.00000E+0,1.00000,0,    7.0,    31.500,     0.000, 0,  17,1.0000,   0,   1.0,   0,   1.0,   0,   1.0, 1, 1.0000
 12372,'2 ',     9.975,     0.000,     3.000,    -3.000,1.05000,  1231,   0,    10.500, 2.57000E-2, 8.33000E-1, 0.00000E+0, 0.00000E+0,1.00000,0,  100.0,    10.500,     0.000, 0,  17,1.0000,   0,   1.0,   0,   1.0,   0,   1.0, 1, 1.0000
 12571,'1 ',    18.478,     0.000,     0.000,     0.000,1.05000,  1251,   0,    21.710, 9.20000E-3, 2.00000E-1, 0.00000E+0, 0.00000E+0,1.00000,0,  100.0,    19.450,     0.000, 0,  17,1.0000,   0,   1.0,   0,   1.0,   0,   1.0, 1, 1.0000
 12572,'1 ',    11.400,     0.000,     0.986,    -0.986,1.05000,  1251,   0,    12.000, 2.52000E-2, 8.33000E-1, 0.00000E+0, 0.00000E+0,1.00000,0,  100.0,    12.000,     0.000, 0,  17,1.0000,   0,   1.0,   0,   1.0,   0,   1.0, 3,-0.9800
 12574,'1 ',    12.729,     0.000,    -1.360,    -1.360,1.05000, 12574,   0,    14.000, 3.20000E-3, 8.33000E-1, 0.00000E+0, 0.00000E+0,1.00000,0,  100.0,    13.399,     0.000, 0,  17,1.0000,   0,   1.0,   0,   1.0,   0,   1.0, 3,-0.9800
 12771,'1 ',     9.500,     0.000,     0.000,     0.000,1.00000, 12771,   0,    10.000, 8.80000E-3, 8.33000E-1, 0.00000E+0, 0.00000E+0,1.00000,0,  100.0,    10.000,     0.000, 0,  23,1.0000,   0,   1.0,   0,   1.0,   0,   1.0, 3,-0.9800
 12872,'DW',     7.980,     0.000,     0.000,    -2.761,1.05000, 12872,   0,     9.200, 2.57000E-2, 2.00000E-1, 0.00000E+0, 0.00000E+0,1.00000,0,  100.0,     8.400,     0.000, 0,  20,1.0000,   0,   1.0,   0,   1.0,   0,   1.0, 3,-0.9800
 12873,'1 ',    18.573,     0.000,     0.000,     0.000,1.05000, 12873,   0,    20.700, 2.57000E-2, 2.00000E-1, 0.00000E+0, 0.00000E+0,1.00000,0,  100.0,    19.550,     0.000, 0,  20,1.0000,   0,   1.0,   0,   1.0,   0,   1.0, 3,-0.9800
 12874,'1 ',     8.075,     0.000,     0.000,     0.000,1.05000, 12874,   0,     8.500, 2.10000E-3, 1.66000E-1, 0.00000E+0, 0.00000E+0,1.00000,0,  100.0,     8.500,     0.000, 0,  20,1.0000,   0,   1.0,   0,   1.0,   0,   1.0, 3,-0.9800
 13011,'1 ',     7.600,     0.000,     0.000,     0.000,1.00000, 13011,   0,     8.500, 2.00000E-2, 8.33000E-1, 0.00000E+0, 0.00000E+0,1.00000,0,  100.0,     8.000,     0.000, 0,  23,1.0000,   0,   1.0,   0,   1.0,   0,   1.0, 3,-0.9800
 13170,'1 ',    33.678,     0.000,    -3.570,    -3.570,1.05000, 13170,   0,    35.500, 2.57000E-2, 8.33000E-1, 0.00000E+0, 0.00000E+0,1.00000,0,  100.0,    35.450,     0.000, 0,  19,1.0000,   0,   1.0,   0,   1.0,   0,   1.0, 2, 0.9600
...